*Heading
** Job name: 3G-V1 Model name: 3G-V1
** Generated by: Abaqus/CAE Version 6.8-1
*Preprint, echo=NO, model=NO, history=NO, contact=NO
**
** PARTS
**
*Part, name=PART-1
*Node
	1,	0,	0,	0
	2,	24,	0,	0
	3,	0,	24,	0
	4,	0,	0,	24
	5,	24,	24,	0
	6,	24,	0,	24
	7,	0,	24,	24
	8,	24,	24,	24
	9,	6,	12,	12
	10,	7.124623,	9.092531,	11.704447
	11,	7,	10,	10
	12,	7,	10,	11
	13,	7.006992,	9.977919,	11.941708
	14,	6.951727,	9.921942,	12.926658
	15,	7.179829,	10.016277,	13.706004
	16,	7,	11,	10
	17,	7,	11,	11
	18,	7,	11,	12
	19,	7,	11,	13
	20,	7,	11,	14
** ... 1759 like lines cut
*Element, type=C3D4
1,	1505,	1509,	889,	1679
2,	1737,	1225,	1724,	1773
3,	1468,	1648,	1626,	1597
4,	1651,	1628,	1593,	1489
5,	1621,	1616,	1716,	1368
6,	1643,	1642,	1413,	1632
7,	1077,	1168,	1737,	1170
8,	1633,	1735,	1738,	1721
9,	1678,	1535,	1676,	1675
10,	1619,	1366,	1620,	1408
11,	1637,	1619,	1408,	1404
12,	1625,	1767,	1174,	1175
13,	565,	1341,	11,	564
14,	1414,	718,	130,	717
15,	1730,	1618,	1620,	1614
16,	1621,	1618,	1629,	1732
17,	1623,	1345,	1602,	1721
18,	1725,	1624,	1767,	1729
19,	1291,	1292,	1275,	1713
20,	1320,	1319,	1303,	1697
** ... 9413 like lines cut
*Elset, elset=M_0
1, 2, 3, 4, 5, 6, 7, 8, 9, 10,
11, 12, 13, 14, 15, 16, 17, 18, 19, 20,
21, 23, 24, 26, 27, 28, 29, 30, 31, 32,
33, 34, 35, 36, 37, 38, 39, 40, 41, 42,
43, 44, 45, 46, 47, 49, 51, 52, 53, 54,
55, 56, 57, 58, 59, 60, 61, 62, 63, 64,
65, 66, 67, 68, 69, 70, 72, 74, 75, 76,
77, 79, 80, 81, 82, 83, 84, 86, 89, 90,
91, 92, 93, 94, 95, 96, 97, 99, 100, 101,
102, 103, 104, 105, 106, 107, 108, 109, 110, 111,
112, 113, 114, 115, 116, 117, 118, 119, 120, 121,
122, 123, 124, 125, 126, 127, 128, 129, 130, 131,
132, 133, 134, 135, 136, 137, 138, 139, 140, 141,
142, 143, 144, 145, 146, 147, 148, 149, 150, 151,
152, 153, 154, 155, 156, 157, 158, 159, 160, 161,
162, 163, 164, 165, 166, 167, 168, 169, 171, 172,
173, 174, 175, 176, 177, 178, 179, 181, 182, 183,
184, 185, 186, 187, 188, 189, 190, 191, 192, 193,
194, 195, 196, 197, 198, 199, 200, 201, 202, 203,
205, 206, 207, 209, 210, 211, 212, 213, 214, 215,
** ... 716 like lines cut

*Elset, elset=M_1
22, 25, 48, 50, 71, 73, 78, 85, 87, 88,
98, 170, 180, 204, 208, 246, 270, 271, 272, 274,
275, 276, 283, 289, 291, 292, 296, 298, 302, 303,
305, 308, 309, 310, 315, 320, 322, 325, 329, 333,
334, 341, 346, 347, 349, 350, 353, 354, 357, 362,
369, 372, 375, 376, 377, 378, 379, 383, 386, 387,
388, 391, 393, 395, 397, 398, 399, 402, 404, 405,
406, 407, 408, 409, 411, 412, 417, 424, 430, 432,
433, 438, 442, 444, 446, 448, 449, 450, 452, 455,
456, 457, 458, 460, 461, 463, 464, 467, 468, 469,
478, 479, 480, 484, 486, 494, 495, 498, 500, 503,
509, 510, 513, 514, 523, 532, 533, 536, 540, 541,
543, 546, 549, 551, 552, 557, 559, 560, 561, 562,
564, 565, 566, 569, 571, 577, 583, 588, 592, 593,
595, 596, 602, 604, 606, 609, 616, 618, 620, 625,
632, 640, 642, 646, 648, 649, 658, 660, 661, 662,
663, 665, 671, 672, 673, 677, 679, 681, 682, 686,
691, 708, 711, 718, 721, 725, 730, 734, 739, 741,
743, 748, 749, 752, 753, 754, 756, 757, 758, 760,
761, 769, 772, 779, 780, 782, 791, 801, 802, 808,
** ... 188 like lines cut

*Nset, nset=N1
1, 3, 4, 7, 518, 526, 527, 532, 533, 535, 
536, 544, 545, 1042, 1043, 1044, 1045, 1082, 1083, 1084, 
1085, 1086, 1087, 1088, 1089, 1090, 1091, 1092, 1093, 1094, 
1095, 1117, 1118, 1119, 1120, 1121, 1122, 1123, 1131, 1132, 
1133, 1134, 1135, 1136, 1137, 1244, 1245, 1246, 1247, 1248, 
1249, 1250, 1251, 1252, 1253, 1254, 1255, 1256, 1257, 1258, 
1259, 1260, 1261, 1262, 1263, 1264, 1265, 1266, 1267, 1268, 
1269, 1270, 1271
*Nset, nset=N2
2, 5, 6, 8, 521, 529, 530, 538, 539, 541, 
542, 547, 548, 1056, 1057, 1058, 1059, 1096, 1097, 1098, 
1099, 1100, 1101, 1102, 1103, 1104, 1105, 1106, 1107, 1108, 
1109, 1138, 1139, 1140, 1141, 1142, 1143, 1144, 1152, 1153, 
1154, 1155, 1156, 1157, 1158, 1272, 1273, 1274, 1275, 1276, 
1277, 1278, 1279, 1280, 1281, 1282, 1283, 1284, 1285, 1286, 
1287, 1288, 1289, 1290, 1291, 1292, 1293, 1294, 1295, 1296, 
1297, 1298, 1299
*Nset, nset=N3
1, 2, 4, 6, 519, 525, 527, 528, 530, 534, 
536, 540, 542, 1046, 1047, 1049, 1050, 1075, 1076, 1077, 
1078, 1079, 1080, 1081, 1089, 1090, 1091, 1092, 1093, 1094, 
1095, 1103, 1104, 1105, 1106, 1107, 1108, 1109, 1124, 1125, 
1126, 1127, 1128, 1129, 1130, 1216, 1217, 1218, 1219, 1220, 
1221, 1222, 1223, 1224, 1225, 1226, 1227, 1228, 1229, 1230, 
1231, 1232, 1233, 1234, 1235, 1236, 1237, 1238, 1239, 1240, 
1241, 1242, 1243
*Nset, nset=N4
3, 5, 7, 8, 522, 531, 533, 537, 539, 543, 
545, 546, 548, 1060, 1061, 1063, 1064, 1110, 1111, 1112, 
1113, 1114, 1115, 1116, 1117, 1118, 1119, 1120, 1121, 1122, 
1123, 1138, 1139, 1140, 1141, 1142, 1143, 1144, 1145, 1146, 
1147, 1148, 1149, 1150, 1151, 1300, 1301, 1302, 1303, 1304, 
1305, 1306, 1307, 1308, 1309, 1310, 1311, 1312, 1313, 1314, 
1315, 1316, 1317, 1318, 1319, 1320, 1321, 1322, 1323, 1324, 
1325, 1326, 1327
*Nset, nset=N5
1, 2, 3, 5, 520, 525, 526, 528, 529, 531, 
532, 537, 538, 1051, 1052, 1053, 1054, 1075, 1076, 1077, 
1078, 1079, 1080, 1081, 1082, 1083, 1084, 1085, 1086, 1087, 
1088, 1096, 1097, 1098, 1099, 1100, 1101, 1102, 1110, 1111, 
1112, 1113, 1114, 1115, 1116, 1159, 1160, 1161, 1162, 1163, 
1164, 1165, 1166, 1167, 1168, 1169, 1170, 1171, 1172, 1173, 
1174, 1175, 1176, 1177, 1178, 1179, 1180, 1181, 1182, 1183, 
1184, 1185, 1186
*Nset, nset=N6
4, 6, 7, 8, 523, 534, 535, 540, 541, 543, 
544, 546, 547, 1065, 1066, 1067, 1068, 1124, 1125, 1126, 
1127, 1128, 1129, 1130, 1131, 1132, 1133, 1134, 1135, 1136, 
1137, 1145, 1146, 1147, 1148, 1149, 1150, 1151, 1152, 1153, 
1154, 1155, 1156, 1157, 1158, 1187, 1188, 1189, 1190, 1191, 
1192, 1193, 1194, 1195, 1196, 1197, 1198, 1199, 1200, 1201, 
1202, 1203, 1204, 1205, 1206, 1207, 1208, 1209, 1210, 1211, 
1212, 1213, 1214, 1215
*Nset, nset=N7

** Section: Section-0-M_0
*Solid Section, elset=M_0, material=M_0
1.,
** Section: Section-1-M_1
*Solid Section, elset=M_1, material=M_1
1.,
*End Part
**
**
** ASSEMBLY
**
*Assembly, name=Assembly
**
*Instance, name=PART-1-1, part=PART-1
*End Instance
**
*End Assembly
*Material, name=M_0
*Elastic
 2.1e+11, 0.3
*Plastic
 7.18936e+08,     0.
*Material, name=M_1
*Elastic
 2.1e+11, 0.3
*Plastic
 7.18936e+08,     0.
** ----------------------------------------------------------------
**
** STEP: Step-1
**
*Step, name=Step-1, nlgeom=YES
*Static
1., 1., 1e-05, 1.
**
** BOUNDARY CONDITIONS
**
** Name: BC-1 Type: Displacement/Rotation
*Boundary
PART-1-1.N2, 1, 1, -15.
** Name: BC-2 Type: Displacement/Rotation
*Boundary
PART-1-1.N1, 1, 1
PART-1-1.N1, 2, 2
PART-1-1.N1, 6, 6
**
** OUTPUT REQUESTS
**
*Restart, write, frequency=0
**
** FIELD OUTPUT: F-Output-1
**
*Output, field, variable=PRESELECT
**
** HISTORY OUTPUT: H-Output-1
**
*Output, history, variable=PRESELECT
*End Step
