*Heading
** Job name: 3G-V1 Model name: 3G-V1
** Generated by: Abaqus/CAE Version 6.8-1
*Preprint, echo=NO, model=NO, history=NO, contact=NO
**
** PARTS
**
*Part, name=PART-1
*Node
	1,	0,	0,	0
	2,	249,	0,	0
	3,	0,	249,	0
	4,	0,	0,	249
	5,	249,	249,	0
	6,	249,	0,	249
	7,	0,	249,	249
	8,	249,	249,	249
	9,	99,	121,	122
	10,	98.801583,	120.801306,	122.853542
	11,	99.108134,	121.027447,	124.356831
	12,	99.251351,	121.049861,	125.946257
	13,	99,	121,	128
	14,	99,	122,	121
	15,	98.992819,	121.891833,	123.150439
	16,	99,	122,	125
	17,	99,	122,	127
	18,	99,	123,	128
	19,	98.945855,	122.550175,	129.265146
	20,	99,	124,	120
** ... 15032 like lines cut
*Element, type=C3D4
1,	1802,	1804,	1692,	1693
2,	3482,	3484,	3573,	3571
3,	3627,	3704,	3712,	3632
4,	3041,	3148,	3150,	3045
5,	2889,	2985,	2887,	2982
6,	4514,	4606,	4610,	4520
7,	2603,	2509,	2604,	2507
8,	1684,	1686,	1577,	1579
9,	118,	112,	204,	198
10,	2036,	1932,	2032,	1928
11,	508,	597,	513,	594
12,	68,	75,	17,	18
13,	1032,	1033,	1119,	1121
14,	282,	380,	383,	280
15,	1192,	1277,	1190,	1275
16,	855,	937,	939,	857
17,	1542,	1638,	1643,	1541
18,	3709,	3625,	3703,	3629
19,	2975,	3078,	3077,	2974
20,	4286,	4279,	4208,	4202
** ... 85678 like lines cut
*Elset, elset=M_0
1, 2, 4, 5, 6, 8, 9, 10, 13, 14,
15, 16, 18, 19, 20, 22, 23, 24, 25, 26,
27, 28, 29, 30, 31, 32, 33, 34, 35, 36,
38, 40, 41, 43, 44, 45, 46, 47, 48, 49,
52, 53, 54, 55, 56, 57, 58, 60, 62, 63,
64, 67, 68, 69, 70, 71, 73, 76, 77, 78,
79, 81, 83, 85, 86, 87, 88, 89, 90, 93,
95, 96, 97, 100, 102, 103, 104, 105, 106, 109,
110, 114, 115, 117, 118, 121, 123, 124, 125, 126,
127, 128, 129, 130, 131, 132, 133, 134, 136, 138,
139, 140, 141, 142, 143, 144, 145, 146, 147, 148,
149, 151, 153, 155, 157, 159, 161, 162, 164, 166,
168, 170, 172, 175, 177, 178, 179, 182, 183, 184,
185, 187, 188, 191, 192, 193, 194, 196, 197, 199,
201, 203, 204, 205, 206, 207, 208, 210, 211, 215,
217, 219, 220, 223, 224, 226, 228, 230, 231, 232,
233, 234, 235, 236, 237, 238, 239, 240, 241, 242,
243, 244, 245, 246, 248, 249, 250, 255, 256, 257,
258, 259, 260, 261, 262, 263, 264, 265, 266, 267,
268, 269, 270, 271, 273, 274, 275, 278, 286, 287,
** ... 5348 like lines cut

*Elset, elset=M_1
3, 7, 11, 12, 17, 21, 37, 39, 42, 50,
51, 59, 61, 65, 66, 72, 74, 75, 80, 82,
84, 91, 92, 94, 98, 99, 101, 107, 108, 111,
112, 113, 116, 119, 120, 122, 135, 137, 150, 152,
154, 156, 158, 160, 163, 165, 167, 169, 171, 173,
174, 176, 180, 181, 186, 189, 190, 195, 198, 200,
202, 209, 212, 213, 214, 216, 218, 221, 222, 225,
227, 229, 247, 251, 252, 253, 254, 272, 276, 277,
279, 280, 281, 282, 283, 284, 285, 290, 291, 293,
298, 300, 302, 303, 304, 305, 306, 308, 310, 311,
314, 321, 324, 326, 328, 330, 331, 332, 334, 337,
338, 340, 341, 348, 363, 366, 367, 368, 369, 370,
372, 374, 378, 382, 384, 386, 389, 394, 396, 397,
399, 401, 402, 403, 405, 406, 407, 409, 410, 416,
417, 421, 423, 424, 426, 427, 434, 435, 437, 441,
450, 451, 457, 460, 461, 463, 467, 470, 471, 477,
478, 482, 485, 489, 490, 491, 495, 499, 500, 505,
506, 510, 514, 515, 517, 518, 520, 524, 526, 527,
528, 530, 533, 534, 537, 541, 547, 549, 550, 554,
555, 564, 566, 572, 574, 575, 576, 578, 582, 587,
** ... 3182 like lines cut

*Nset, nset=N1
1, 3, 4, 7, 4688, 4713, 4714, 4715, 4716, 4717, 
4718, 4719, 4720, 4721, 4722, 4723, 4724, 4725, 4726, 4727, 
4728, 4729, 4730, 4731, 4732, 4733, 4734, 4735, 4736, 4737, 
4738, 4739, 4740, 4741, 4742, 4743, 4744, 4745, 4746, 4747, 
4748, 4803, 4804, 4805, 4806, 4807, 4808, 4809, 4810, 4811, 
4812, 4813, 4814, 4815, 4816, 4817, 4818, 4819, 4820, 4839, 
4840, 4841, 4842, 4843, 4844, 4845, 4846, 4847, 4848, 4849, 
4850, 4851, 4852, 4853, 4854, 4855, 4856, 5201, 5202, 5203, 
5204, 5205, 5206, 5207, 5208, 5209, 5210, 5211, 5212, 5213, 
5214, 5215, 5216, 5217, 5218, 5219, 5220, 5221, 5222, 5223, 
5224, 5225, 5226, 5227, 5228, 5229, 5230, 5231, 5232, 5233, 
5234, 5235, 5236, 5237, 5238, 5239, 5240, 5241, 5242, 5243, 
5244, 5245, 5246, 5247, 5248, 5249, 5250, 5251, 5252, 5253, 
5254, 5255, 5256, 5257, 5258, 5259, 5260, 5261, 5262, 5263, 
5264, 5265, 5266, 5267, 5268, 5269, 5270, 5271, 5272, 5273, 
5274, 5275, 5276, 5277, 5278, 5279, 5280, 5281, 5282, 5283, 
5284, 5285, 5286, 5287, 5288, 5289, 5290, 5291, 5292, 5293, 
5294, 5295, 5296
*Nset, nset=N2
2, 5, 6, 8, 4691, 4749, 4750, 4751, 4752, 4753, 
4754, 4755, 4756, 4757, 4758, 4759, 4760, 4761, 4762, 4763, 
4764, 4765, 4766, 4767, 4768, 4769, 4770, 4771, 4772, 4773, 
4774, 4775, 4776, 4777, 4778, 4779, 4780, 4781, 4782, 4783, 
4784, 4857, 4858, 4859, 4860, 4861, 4862, 4863, 4864, 4865, 
4866, 4867, 4868, 4869, 4870, 4871, 4872, 4873, 4874, 4893, 
4894, 4895, 4896, 4897, 4898, 4899, 4900, 4901, 4902, 4903, 
4904, 4905, 4906, 4907, 4908, 4909, 4910, 5297, 5298, 5299, 
5300, 5301, 5302, 5303, 5304, 5305, 5306, 5307, 5308, 5309, 
5310, 5311, 5312, 5313, 5314, 5315, 5316, 5317, 5318, 5319, 
5320, 5321, 5322, 5323, 5324, 5325, 5326, 5327, 5328, 5329, 
5330, 5331, 5332, 5333, 5334, 5335, 5336, 5337, 5338, 5339, 
5340, 5341, 5342, 5343, 5344, 5345, 5346, 5347, 5348, 5349, 
5350, 5351, 5352, 5353, 5354, 5355, 5356, 5357, 5358, 5359, 
5360, 5361, 5362, 5363, 5364, 5365, 5366, 5367, 5368, 5369, 
5370, 5371, 5372, 5373, 5374, 5375, 5376, 5377, 5378, 5379, 
5380, 5381, 5382, 5383, 5384, 5385, 5386, 5387, 5388, 5389, 
5390, 5391, 5392
*Nset, nset=N3
1, 2, 4, 6, 4689, 4695, 4696, 4697, 4698, 4699, 
4700, 4701, 4702, 4703, 4704, 4705, 4706, 4707, 4708, 4709, 
4710, 4711, 4712, 4731, 4732, 4733, 4734, 4735, 4736, 4737, 
4738, 4739, 4740, 4741, 4742, 4743, 4744, 4745, 4746, 4747, 
4748, 4767, 4768, 4769, 4770, 4771, 4772, 4773, 4774, 4775, 
4776, 4777, 4778, 4779, 4780, 4781, 4782, 4783, 4784, 4821, 
4822, 4823, 4824, 4825, 4826, 4827, 4828, 4829, 4830, 4831, 
4832, 4833, 4834, 4835, 4836, 4837, 4838, 5105, 5106, 5107, 
5108, 5109, 5110, 5111, 5112, 5113, 5114, 5115, 5116, 5117, 
5118, 5119, 5120, 5121, 5122, 5123, 5124, 5125, 5126, 5127, 
5128, 5129, 5130, 5131, 5132, 5133, 5134, 5135, 5136, 5137, 
5138, 5139, 5140, 5141, 5142, 5143, 5144, 5145, 5146, 5147, 
5148, 5149, 5150, 5151, 5152, 5153, 5154, 5155, 5156, 5157, 
5158, 5159, 5160, 5161, 5162, 5163, 5164, 5165, 5166, 5167, 
5168, 5169, 5170, 5171, 5172, 5173, 5174, 5175, 5176, 5177, 
5178, 5179, 5180, 5181, 5182, 5183, 5184, 5185, 5186, 5187, 
5188, 5189, 5190, 5191, 5192, 5193, 5194, 5195, 5196, 5197, 
5198, 5199, 5200
*Nset, nset=N4
3, 5, 7, 8, 4692, 4785, 4786, 4787, 4788, 4789, 
4790, 4791, 4792, 4793, 4794, 4795, 4796, 4797, 4798, 4799, 
4800, 4801, 4802, 4803, 4804, 4805, 4806, 4807, 4808, 4809, 
4810, 4811, 4812, 4813, 4814, 4815, 4816, 4817, 4818, 4819, 
4820, 4857, 4858, 4859, 4860, 4861, 4862, 4863, 4864, 4865, 
4866, 4867, 4868, 4869, 4870, 4871, 4872, 4873, 4874, 4875, 
4876, 4877, 4878, 4879, 4880, 4881, 4882, 4883, 4884, 4885, 
4886, 4887, 4888, 4889, 4890, 4891, 4892, 5393, 5394, 5395, 
5396, 5397, 5398, 5399, 5400, 5401, 5402, 5403, 5404, 5405, 
5406, 5407, 5408, 5409, 5410, 5411, 5412, 5413, 5414, 5415, 
5416, 5417, 5418, 5419, 5420, 5421, 5422, 5423, 5424, 5425, 
5426, 5427, 5428, 5429, 5430, 5431, 5432, 5433, 5434, 5435, 
5436, 5437, 5438, 5439, 5440, 5441, 5442, 5443, 5444, 5445, 
5446, 5447, 5448, 5449, 5450, 5451, 5452, 5453, 5454, 5455, 
5456, 5457, 5458, 5459, 5460, 5461, 5462, 5463, 5464, 5465, 
5466, 5467, 5468, 5469, 5470, 5471, 5472, 5473, 5474, 5475, 
5476, 5477, 5478, 5479, 5480, 5481, 5482, 5483, 5484, 5485, 
5486, 5487, 5488
*Nset, nset=N5
1, 2, 3, 5, 4690, 4695, 4696, 4697, 4698, 4699, 
4700, 4701, 4702, 4703, 4704, 4705, 4706, 4707, 4708, 4709, 
4710, 4711, 4712, 4713, 4714, 4715, 4716, 4717, 4718, 4719, 
4720, 4721, 4722, 4723, 4724, 4725, 4726, 4727, 4728, 4729, 
4730, 4749, 4750, 4751, 4752, 4753, 4754, 4755, 4756, 4757, 
4758, 4759, 4760, 4761, 4762, 4763, 4764, 4765, 4766, 4785, 
4786, 4787, 4788, 4789, 4790, 4791, 4792, 4793, 4794, 4795, 
4796, 4797, 4798, 4799, 4800, 4801, 4802, 4911, 4912, 4913, 
4914, 4915, 4916, 4917, 4918, 4919, 4920, 4921, 4922, 4923, 
4924, 4925, 4926, 4927, 4928, 4929, 4930, 4931, 4932, 4933, 
4934, 4935, 4936, 4937, 4938, 4939, 4940, 4941, 4942, 4943, 
4944, 4945, 4946, 4947, 4948, 4949, 4950, 4951, 4952, 4953, 
4954, 4955, 4956, 4957, 4958, 4959, 4960, 4961, 4962, 4963, 
4964, 4965, 4966, 4967, 4968, 4969, 4970, 4971, 4972, 4973, 
4974, 4975, 4976, 4977, 4978, 4979, 4980, 4981, 4982, 4983, 
4984, 4985, 4986, 4987, 4988, 4989, 4990, 4991, 4992, 4993, 
4994, 4995, 4996, 4997, 4998, 4999, 5000, 5001, 5002, 5003, 
5004, 5005, 5006
*Nset, nset=N6
4, 6, 7, 8, 4693, 4821, 4822, 4823, 4824, 4825, 
4826, 4827, 4828, 4829, 4830, 4831, 4832, 4833, 4834, 4835, 
4836, 4837, 4838, 4839, 4840, 4841, 4842, 4843, 4844, 4845, 
4846, 4847, 4848, 4849, 4850, 4851, 4852, 4853, 4854, 4855, 
4856, 4875, 4876, 4877, 4878, 4879, 4880, 4881, 4882, 4883, 
4884, 4885, 4886, 4887, 4888, 4889, 4890, 4891, 4892, 4893, 
4894, 4895, 4896, 4897, 4898, 4899, 4900, 4901, 4902, 4903, 
4904, 4905, 4906, 4907, 4908, 4909, 4910, 5007, 5008, 5009, 
5010, 5011, 5012, 5013, 5014, 5015, 5016, 5017, 5018, 5019, 
5020, 5021, 5022, 5023, 5024, 5025, 5026, 5027, 5028, 5029, 
5030, 5031, 5032, 5033, 5034, 5035, 5036, 5037, 5038, 5039, 
5040, 5041, 5042, 5043, 5044, 5045, 5046, 5047, 5048, 5049, 
5050, 5051, 5052, 5053, 5054, 5055, 5056, 5057, 5058, 5059, 
5060, 5061, 5062, 5063, 5064, 5065, 5066, 5067, 5068, 5069, 
5070, 5071, 5072, 5073, 5074, 5075, 5076, 5077, 5078, 5079, 
5080, 5081, 5082, 5083, 5084, 5085, 5086, 5087, 5088, 5089, 
5090, 5091, 5092, 5093, 5094, 5095, 5096, 5097, 5098, 5099, 
5100, 5101, 5102, 5103, 5104
*Nset, nset=N7

** Section: Section-0-M_0
*Solid Section, elset=M_0, material=M_0
1.,
** Section: Section-1-M_1
*Solid Section, elset=M_1, material=M_1
1.,
*End Part
**
**
** ASSEMBLY
**
*Assembly, name=Assembly
**
*Instance, name=PART-1-1, part=PART-1
*End Instance
**
*End Assembly
*Material, name=M_0
*Elastic
 2.1e+11, 0.3
*Plastic
 7.18936e+08,     0.
*Material, name=M_1
*Elastic
 2.1e+11, 0.3
*Plastic
 7.18936e+08,     0.
** ----------------------------------------------------------------
**
** STEP: Step-1
**
*Step, name=Step-1, nlgeom=YES
*Static
1., 1., 1e-05, 1.
**
** BOUNDARY CONDITIONS
**
** Name: BC-1 Type: Displacement/Rotation
*Boundary
PART-1-1.N2, 1, 1, -15.
** Name: BC-2 Type: Displacement/Rotation
*Boundary
PART-1-1.N1, 1, 1
PART-1-1.N1, 2, 2
PART-1-1.N1, 6, 6
**
** OUTPUT REQUESTS
**
*Restart, write, frequency=0
**
** FIELD OUTPUT: F-Output-1
**
*Output, field, variable=PRESELECT
**
** HISTORY OUTPUT: H-Output-1
**
*Output, history, variable=PRESELECT
*End Step
