*Heading
** Job name: 3G-V1 Model name: 3G-V1
** Generated by: Abaqus/CAE Version 6.8-1
*Preprint, echo=NO, model=NO, history=NO, contact=NO
**
** PARTS
**
*Part, name=PART-1
*Node
	1,	0,	0,	0
	2,	49,	0,	0
	3,	0,	49,	0
	4,	0,	0,	49
	5,	49,	49,	0
	6,	49,	0,	49
	7,	0,	49,	49
	8,	49,	49,	49
	9,	14,	22,	23
	10,	14,	22,	24
	11,	14,	22,	25
	12,	14,	22,	26
	13,	14,	23,	22
	14,	14,	23,	23
	15,	14,	23,	24
	16,	14,	23,	25
	17,	14,	23,	26
	18,	14,	23,	27
	19,	14.028531,	23.933971,	21.978882
	20,	14,	24,	23
** ... 6158 like lines cut
*Element, type=C3D4
1,	2236,	2235,	116,	2240
2,	4104,	2069,	2074,	4099
3,	5422,	4019,	4025,	5418
4,	4683,	2330,	2341,	4676
5,	2742,	4844,	2659,	4884
6,	6178,	6013,	5781,	6014
7,	5858,	5859,	5845,	6082
8,	6147,	6171,	4472,	4291
9,	5683,	5667,	5016,	5663
10,	5911,	5931,	5610,	5933
11,	6134,	6149,	4335,	5963
12,	6172,	4376,	4277,	6169
13,	5989,	5245,	5715,	5731
14,	5805,	5807,	5441,	5808
15,	4879,	5624,	5609,	5591
16,	5977,	5677,	5134,	5713
17,	5881,	5560,	4796,	5572
18,	5520,	5521,	5500,	4621
19,	6080,	4419,	4422,	4424
20,	5231,	5729,	5984,	5744
** ... 35034 like lines cut
*Elset, elset=M_0
1, 2, 3, 5, 6, 7, 8, 9, 10, 11,
12, 13, 14, 15, 16, 17, 18, 19, 20, 21,
22, 23, 24, 25, 26, 27, 28, 30, 31, 32,
33, 34, 35, 36, 37, 38, 44, 45, 46, 47,
48, 51, 52, 53, 55, 56, 57, 58, 59, 60,
61, 63, 64, 65, 66, 67, 68, 69, 70, 71,
72, 73, 74, 75, 76, 78, 79, 80, 81, 83,
84, 85, 86, 87, 88, 89, 90, 91, 92, 93,
94, 95, 96, 97, 98, 99, 100, 101, 102, 103,
105, 106, 107, 108, 110, 111, 112, 113, 114, 115,
116, 117, 118, 119, 120, 121, 122, 123, 124, 125,
127, 128, 130, 131, 132, 135, 136, 137, 139, 141,
142, 143, 144, 145, 146, 147, 148, 149, 150, 151,
154, 155, 156, 157, 158, 159, 162, 163, 165, 166,
169, 170, 171, 172, 173, 174, 175, 178, 179, 181,
182, 184, 185, 186, 188, 189, 190, 192, 193, 194,
195, 196, 198, 199, 200, 201, 202, 203, 204, 205,
206, 207, 208, 209, 210, 211, 212, 213, 214, 215,
216, 217, 218, 219, 220, 221, 222, 223, 224, 225,
226, 227, 228, 230, 231, 232, 233, 235, 236, 237,
** ... 2309 like lines cut

*Elset, elset=M_1
4, 29, 39, 40, 41, 42, 43, 49, 50, 54,
62, 77, 82, 104, 109, 126, 129, 133, 134, 138,
140, 152, 153, 160, 161, 164, 167, 168, 176, 177,
180, 183, 187, 191, 197, 229, 234, 243, 246, 254,
257, 258, 259, 275, 277, 280, 281, 282, 289, 291,
293, 295, 297, 298, 309, 318, 319, 321, 333, 334,
335, 341, 342, 343, 344, 345, 347, 348, 351, 352,
354, 355, 362, 364, 365, 367, 368, 373, 375, 401,
404, 406, 407, 408, 418, 420, 431, 438, 440, 441,
442, 443, 446, 447, 448, 487, 490, 491, 493, 506,
508, 509, 511, 513, 520, 523, 526, 528, 529, 538,
539, 540, 542, 544, 546, 547, 549, 561, 568, 569,
570, 572, 573, 583, 587, 590, 608, 621, 622, 625,
629, 640, 647, 648, 649, 650, 657, 665, 666, 667,
674, 687, 693, 699, 701, 702, 708, 710, 711, 713,
714, 715, 720, 721, 722, 723, 727, 734, 735, 738,
742, 747, 748, 750, 753, 762, 763, 765, 767, 768,
769, 770, 774, 775, 778, 779, 781, 782, 787, 792,
794, 795, 797, 799, 800, 801, 802, 803, 807, 815,
823, 828, 840, 845, 846, 847, 850, 857, 858, 859,
** ... 1157 like lines cut

*Nset, nset=N1
1, 3, 4, 7, 2080, 2088, 2089, 2094, 2095, 2097, 
2098, 2106, 2107, 4109, 4110, 4111, 4112, 4150, 4151, 4152, 
4153, 4154, 4155, 4156, 4157, 4158, 4159, 4160, 4161, 4162, 
4163, 4164, 4165, 4166, 4167, 4168, 4169, 4200, 4201, 4202, 
4203, 4204, 4205, 4206, 4207, 4208, 4209, 4220, 4221, 4222, 
4223, 4224, 4225, 4226, 4227, 4228, 4229, 4407, 4408, 4409, 
4410, 4411, 4412, 4413, 4414, 4415, 4416, 4417, 4418, 4419, 
4420, 4421, 4422, 4423, 4424, 4425, 4426, 4427, 4428, 4429, 
4430, 4431, 4432, 4433, 4434, 4435, 4436, 4437, 4438, 4439, 
4440, 4441, 4442, 4443, 4444, 4445, 4446, 4447, 4448, 4449, 
4450, 4451, 4452, 4453, 4454
*Nset, nset=N2
2, 5, 6, 8, 2083, 2091, 2092, 2100, 2101, 2103, 
2104, 2109, 2110, 4122, 4123, 4124, 4125, 4170, 4171, 4172, 
4173, 4174, 4175, 4176, 4177, 4178, 4179, 4180, 4181, 4182, 
4183, 4184, 4185, 4186, 4187, 4188, 4189, 4230, 4231, 4232, 
4233, 4234, 4235, 4236, 4237, 4238, 4239, 4250, 4251, 4252, 
4253, 4254, 4255, 4256, 4257, 4258, 4259, 4455, 4456, 4457, 
4458, 4459, 4460, 4461, 4462, 4463, 4464, 4465, 4466, 4467, 
4468, 4469, 4470, 4471, 4472, 4473, 4474, 4475, 4476, 4477, 
4478, 4479, 4480, 4481, 4482, 4483, 4484, 4485, 4486, 4487, 
4488, 4489, 4490, 4491, 4492, 4493, 4494, 4495, 4496, 4497, 
4498, 4499, 4500, 4501, 4502
*Nset, nset=N3
1, 2, 4, 6, 2081, 2087, 2089, 2090, 2092, 2096, 
2098, 2102, 2104, 4113, 4114, 4115, 4116, 4140, 4141, 4142, 
4143, 4144, 4145, 4146, 4147, 4148, 4149, 4160, 4161, 4162, 
4163, 4164, 4165, 4166, 4167, 4168, 4169, 4180, 4181, 4182, 
4183, 4184, 4185, 4186, 4187, 4188, 4189, 4210, 4211, 4212, 
4213, 4214, 4215, 4216, 4217, 4218, 4219, 4359, 4360, 4361, 
4362, 4363, 4364, 4365, 4366, 4367, 4368, 4369, 4370, 4371, 
4372, 4373, 4374, 4375, 4376, 4377, 4378, 4379, 4380, 4381, 
4382, 4383, 4384, 4385, 4386, 4387, 4388, 4389, 4390, 4391, 
4392, 4393, 4394, 4395, 4396, 4397, 4398, 4399, 4400, 4401, 
4402, 4403, 4404, 4405, 4406
*Nset, nset=N4
3, 5, 7, 8, 2084, 2093, 2095, 2099, 2101, 2105, 
2107, 2108, 2110, 4126, 4127, 4129, 4130, 4190, 4191, 4192, 
4193, 4194, 4195, 4196, 4197, 4198, 4199, 4200, 4201, 4202, 
4203, 4204, 4205, 4206, 4207, 4208, 4209, 4230, 4231, 4232, 
4233, 4234, 4235, 4236, 4237, 4238, 4239, 4240, 4241, 4242, 
4243, 4244, 4245, 4246, 4247, 4248, 4249, 4503, 4504, 4505, 
4506, 4507, 4508, 4509, 4510, 4511, 4512, 4513, 4514, 4515, 
4516, 4517, 4518, 4519, 4520, 4521, 4522, 4523, 4524, 4525, 
4526, 4527, 4528, 4529, 4530, 4531, 4532, 4533, 4534, 4535, 
4536, 4537, 4538, 4539, 4540, 4541, 4542, 4543, 4544, 4545, 
4546, 4547, 4548, 4549, 4550
*Nset, nset=N5
1, 2, 3, 5, 2082, 2087, 2088, 2090, 2091, 2093, 
2094, 2099, 2100, 4117, 4118, 4119, 4120, 4140, 4141, 4142, 
4143, 4144, 4145, 4146, 4147, 4148, 4149, 4150, 4151, 4152, 
4153, 4154, 4155, 4156, 4157, 4158, 4159, 4170, 4171, 4172, 
4173, 4174, 4175, 4176, 4177, 4178, 4179, 4190, 4191, 4192, 
4193, 4194, 4195, 4196, 4197, 4198, 4199, 4260, 4261, 4262, 
4263, 4264, 4265, 4266, 4267, 4268, 4269, 4270, 4271, 4272, 
4273, 4274, 4275, 4276, 4277, 4278, 4279, 4280, 4281, 4282, 
4283, 4284, 4285, 4286, 4287, 4288, 4289, 4290, 4291, 4292, 
4293, 4294, 4295, 4296, 4297, 4298, 4299, 4300, 4301, 4302, 
4303, 4304, 4305, 4306, 4307
*Nset, nset=N6
4, 6, 7, 8, 2085, 2096, 2097, 2102, 2103, 2105, 
2106, 2108, 2109, 4131, 4132, 4133, 4134, 4210, 4211, 4212, 
4213, 4214, 4215, 4216, 4217, 4218, 4219, 4220, 4221, 4222, 
4223, 4224, 4225, 4226, 4227, 4228, 4229, 4240, 4241, 4242, 
4243, 4244, 4245, 4246, 4247, 4248, 4249, 4250, 4251, 4252, 
4253, 4254, 4255, 4256, 4257, 4258, 4259, 4308, 4309, 4310, 
4311, 4312, 4313, 4314, 4315, 4316, 4317, 4318, 4319, 4320, 
4321, 4322, 4323, 4324, 4325, 4326, 4327, 4328, 4329, 4330, 
4331, 4332, 4333, 4334, 4335, 4336, 4337, 4338, 4339, 4340, 
4341, 4342, 4343, 4344, 4345, 4346, 4347, 4348, 4349, 4350, 
4351, 4352, 4353, 4354, 4355, 4356, 4357, 4358
*Nset, nset=N7

** Section: Section-0-M_0
*Solid Section, elset=M_0, material=M_0
1.,
** Section: Section-1-M_1
*Solid Section, elset=M_1, material=M_1
1.,
*End Part
**
**
** ASSEMBLY
**
*Assembly, name=Assembly
**
*Instance, name=PART-1-1, part=PART-1
*End Instance
**
*End Assembly
*Material, name=M_0
*Elastic
 2.1e+11, 0.3
*Plastic
 7.18936e+08,     0.
*Material, name=M_1
*Elastic
 2.1e+11, 0.3
*Plastic
 7.18936e+08,     0.
** ----------------------------------------------------------------
**
** STEP: Step-1
**
*Step, name=Step-1, nlgeom=YES
*Static
1., 1., 1e-05, 1.
**
** BOUNDARY CONDITIONS
**
** Name: BC-1 Type: Displacement/Rotation
*Boundary
PART-1-1.N2, 1, 1, -15.
** Name: BC-2 Type: Displacement/Rotation
*Boundary
PART-1-1.N1, 1, 1
PART-1-1.N1, 2, 2
PART-1-1.N1, 6, 6
**
** OUTPUT REQUESTS
**
*Restart, write, frequency=0
**
** FIELD OUTPUT: F-Output-1
**
*Output, field, variable=PRESELECT
**
** HISTORY OUTPUT: H-Output-1
**
*Output, history, variable=PRESELECT
*End Step
